     120
 i =        0, time =        0.000, E =     -1415.6081234726
 Al        10.0480372212        1.4699746029        7.1532655133
 Al         5.2991968355       10.6345712564        6.0956509359
 Al         7.4808149864        2.1224807289       14.3910552467
 Al        17.5837939427       14.8022896909       13.1025771980
 Al         5.4269139087       18.5249263897       14.8155581395
 Al        17.3983795922       12.1331636557        0.1957532615
 Al         2.1735416455        3.9778980856        4.4802155417
 Al        11.9155540108       13.6120781764        2.5480955190
 Al        17.8201882138        1.4156818066        2.2368737947
 Al        11.1723781174        9.4504800482       13.6140694838
 Al         4.9937494731       17.9715047788        4.4700085649
 Al        16.9862983670        3.9123841889        0.0624956892
 Al         0.9373055139        2.1035863443       10.0188103800
 Al        12.6968150431        0.4570073313        8.9765369824
 Al         3.2473822014       11.9524028503       14.8206815655
 Al         5.1898687016        5.2690445406        3.7976833806
 Al        17.6660371078        7.8534422150       12.2806617697
 Al        10.1995468639        5.4086810692        1.7011600113
 Al        15.5432963250       14.3265837918       10.5903709019
 Al        11.9051142490        7.6956592314        0.3568027794
 Al        10.8959933188       15.9453385281       16.2719959728
 Al         0.9697898020        6.3466850964       14.1634593874
 Al        16.8697776069        3.1308095434        9.5943376631
 Al        12.3793436875       18.7274267300       17.3140074872
 Al        11.0535801594        7.1007242910       11.0162058423
 Al        10.8891541809       11.3028119257        5.0252956892
 Al         5.1484017136       17.1992964974        7.8492690301
 Al        16.9909249694       14.7426212847        2.2103589336
 Al         3.1698249126       10.8415268434        8.6204890528
 Al         6.1000635400       10.2060819200       14.8406676687
 Cl        17.2136711407        3.5459428389       16.8037200794
 Cl        11.3618295638       15.8259359756        2.9524193988
 Cl        13.3748596262        9.1947118123        1.3218152581
 Cl         9.1277323999        7.0163451078       10.0279127056
 Cl         5.5470622354       16.9391527652       13.2225013613
 Cl        17.3802600800       13.0335642796       11.5113148043
 Cl        16.3065175956       12.1819978588        2.2985348837
 Cl         0.6014333642       11.8476431225        0.7234111741
 Cl         7.4748337045        0.1538253120       16.0650576290
 Cl        11.7960415320        7.5984951929       17.1129103233
 Cl        12.5167191838        0.3613887266       11.3257409529
 Cl         0.4635233244       16.0695681367       12.8843142938
 Cl        15.9382506075        1.8533262762        0.8550845150
 Cl        12.8258609308       12.4780885564        4.5462823029
 Cl        17.1625521957        1.2721547504        4.3862361316
 Cl         5.7252591724        7.2972465825        2.9383973341
 Cl        11.3219618951       18.2614374504       15.1561204765
 Cl        14.6032284861       18.8635499291       16.7708672150
 Cl        16.7958715944        9.4254599688       13.6696835508
 Cl        12.5509321163       10.6094649603       14.7849393647
 Cl         3.8984980834       18.4523836784       16.5946176971
 Cl        14.5596341015       18.9527346143        7.7581746455
 Cl         8.8913736931        4.3104735252        0.3085720930
 Cl         8.4852877601        1.4884368264       12.5417635848
 Cl        10.7274742036       18.3927292825        8.0958530346
 Cl         1.2186229841        7.9921734685       12.5614910380
 Cl        10.5638521957        7.0915551475       13.5750435054
 Cl         2.9259750545        2.1613989365        8.8676140669
 Cl         2.4831931486       11.5631550340       12.7783701645
 Cl         6.2294909365        0.1880705757        3.0680090187
 Cl        16.2734976863        5.9654511202        0.8279445831
 Cl         8.6977612144       15.5183288854       16.5328272830
 Cl         0.9794158939        1.4615824872       12.2109211004
 Cl        16.9812837896       14.6253989365       18.8348179240
 Cl         0.2509162343        5.1771181651        5.2967585933
 Cl         2.3908917306        1.7851504396        4.6389544526
 Cl        18.8958285428       14.5587825440        3.5062052751
 Cl         5.0962503239        0.2317231566        6.5043039705
 Cl        16.9669599665        7.8795755672       10.1232952921
 Cl         9.3692813505       10.6722932076       13.1242542258
 Cl         3.0809150431        9.7055995037        6.4108634146
 Cl        12.9607555423       13.6348189024        0.5949418605
 Cl         9.8271026778        7.9412549773        1.4690442428
 Cl        12.7730176523        5.7685052893       10.6028464549
 Cl         3.8752745440        9.7718710295       15.6474628474
 Cl        18.7655346687       18.4574445973        1.3729740783
 Cl         5.8058211123        8.6661421583       13.2507039138
 Cl         6.9860271815        4.0115053460        3.8345399319
 Cl        17.2080422694       13.9719013188       15.1676778219
 Cl         7.7569325133        4.2004071611       15.1957294952
 Cl         7.9237499268        2.0458761344        7.8171026659
 Cl        12.4318227005        5.3955147050        0.6533170164
 Cl         6.3088329104       17.4932479438        9.6184330686
 Cl        11.5187115831       16.7501431792       18.4027279637
 Cl        16.5659263307       10.9655312110       17.4656162791
 Cl         9.5605584351       12.2309452212        6.5909743619
 Cl        15.3822392632       15.7428155559        3.3681098695
 Cl         3.0795743738       16.1667138542        8.0343385139
 Cl         0.9990517419        7.2962658678       16.2360802609
 Cl        17.6515376183        5.7051069342       13.4103233125
 Cl        18.8699764725        4.3655681367        9.7852106069
 Cl         5.4397548049       12.5343320051       14.1212121384
 Cl        10.5289204317        5.0243282048        3.9680486103
 Cl        15.5839345553        4.0920812961        7.9464966534
 Cl         1.2438661492       12.0454608196        8.9808187181
 Cl        17.9908767561        0.9889275808        8.9816517867
 Cl         6.5383880437        8.9713836784        6.7899602950
 Cl         4.9335486790       12.4206391520        7.7842810550
 Cl         0.1416894050        3.2320580970        1.3811625071
 Cl        11.5199143057        1.4955216818       18.5552819058
 Cl        10.0350314356       12.1870986529        2.6045609756
 Cl         5.1249658656        1.8727174844       14.0554331254
 Cl         2.8836178792       17.1841913358        3.9624844016
 Cl        15.9270370510        2.8795622944       11.7246385706
 Cl        11.0435240618        9.0959204339        4.9668084515
 Cl         2.4474099949       13.4549515173       16.4061124787
 Cl        10.3855151566        1.3430410238        4.8888610323
 Cl         6.1347204884       16.0256579836        5.9045559841
 Cl        15.5959219064       15.9004196398       12.2974352240
 Cl         5.6754097680       11.6418956466        4.0916412933
 Cl         7.5621011463        9.9067861174       16.4783178673
 Cl         4.0595982535        9.0502352950        9.8545999433
 Cl         2.2859380153        4.4481798780       13.9853465116
 Cl         4.0031532734        4.8564298497        5.9903361883
 Cl        11.7979285995        2.7588212280        8.1514336926
 Cl        13.5209656387       13.3582271838       10.1568249575
 Cl         3.0866947935        5.0594313244        2.3664563812
 Cl        16.2682945099       15.5330320618        8.7613671015
 Cl        12.2031728423        9.3552742059       11.4247489507
 Cl        12.5837698928       14.6618664351       15.4812834373
     120
 i =        1, time =        1.000, E =     -1415.6093357161
 Al        10.0437680225        1.4736567180        7.1599958889
 Al         5.3054383919       10.6280314923        6.0968436500
 Al         7.4758321481        2.1246187546       14.3886089226
 Al        17.5823988496       14.8045101633       13.0986465614
 Al         5.4342971290       18.5261025495       14.8250661978
 Al        17.3939428945       12.1288839880        0.1953930400
 Al         2.1755365424        3.9880960653        4.4767738736
 Al        11.9140304654       13.6202596461        2.5500626502
 Al        17.8221677488        1.4193883078        2.2452807152
 Al        11.1675905247        9.4476396965       13.6123077588
 Al         4.9917341640       17.9734879525        4.4726158488
 Al        16.9808068088        3.9116830747        0.0674536696
 Al         0.9432072794        2.1036474166       10.0157749316
 Al        12.6890926543        0.4592039147        8.9743284598
 Al         3.2384176070       11.9525481084       14.8224773692
 Al         5.1906754101        5.2720759602        3.7958219446
 Al        17.6618160824        7.8560415498       12.2814329408
 Al        10.1999522289        5.4048060391        1.7060106033
 Al        15.5499659014       14.3310970439       10.5930178781
 Al        11.9068493349        7.6916712071        0.3602733582
 Al        10.9020504232       15.9445760063       16.2695473097
 Al         0.9730542183        6.3491437318       14.1583764007
 Al        16.8706894872        3.1344684896        9.5925089542
 Al        12.3747880845       18.7286831834       17.3210717274
 Al        11.0502777390        7.1004503147       11.0193558958
 Al        10.8888475041       11.2974245542        5.0237976443
 Al         5.1508115019       17.1985766237        7.8478143554
 Al        16.9947514787       14.7439926748        2.2138490121
 Al         3.1684867476       10.8336701580        8.6203927677
 Al         6.1021859212       10.2067089696       14.8435940497
 Cl        17.2116534714        3.5480848970       16.8021121344
 Cl        11.3693145354       15.8280362083        2.9551040060
 Cl        13.3706386931        9.2001586476        1.3290970725
 Cl         9.1288401747        7.0174786328       10.0281310029
 Cl         5.5422818155       16.9464580225       13.2187333967
 Cl        17.3729364322       13.0299247408       11.5126618690
 Cl        16.3024841534       12.1840824980        2.2961119396
 Cl         0.6028471319       11.8524846302        0.7226678834
 Cl         7.4762333777        0.1551984678       16.0654872920
 Cl        11.7941603755        7.6009232012       17.1128218476
 Cl        12.5130947305        0.3636018725       11.3278455531
 Cl         0.4619068773       16.0641877568       12.8847607545
 Cl        15.9406836712        1.8542321636        0.8632022908
 Cl        12.8266464475       12.4752235679        4.5492410584
 Cl        17.1666451848        1.2717347669        4.3808070366
 Cl         5.7263064954        7.2990604781        2.9386963814
 Cl        11.3243000672       18.2662017857       15.1546279444
 Cl        14.6079105157       18.8661701675       16.7631575682
 Cl        16.7961875668        9.4271319984       13.6691642416
 Cl        12.5481949817       10.6036792979       14.7835995421
 Cl         3.8919102478       18.4540962845       16.5941724410
 Cl        14.5631951471       18.9495871223        7.7558801609
 Cl         8.8953663745        4.3130926374        0.3112819998
 Cl         8.4865777085        1.4883285768       12.5488137875
 Cl        10.7307217713       18.3913220781        8.0978839920
 Cl         1.2118293343        7.9907236487       12.5627150119
 Cl        10.5621914924        7.0908770205       13.5796987619
 Cl         2.9241303051        2.1554305637        8.8668641797
 Cl         2.4824166020       11.5571568109       12.7752293041
 Cl         6.2285890459        0.1895348131        3.0680763968
 Cl        16.2691899783        5.9718437818        0.8275070106
 Cl         8.6998009493       15.5206141332       16.5255524948
 Cl         0.9799721098        1.4588500559       12.2091595324
 Cl        16.9835789172       14.6272395036       18.8397071764
 Cl         0.2531214759        5.1832783196        5.2909895347
 Cl         2.3890933448        1.7832875085        4.6334504677
 Cl        18.8978828950       14.5597623050        3.5100534351
 Cl         5.0960478995        0.2255678093        6.5058539711
 Cl        16.9665489124        7.8751618104       10.1214471975
 Cl         9.3707961318       10.6721767710       13.1210018875
 Cl         3.0759169740        9.7059330089        6.4186613529
 Cl        12.9564878512       13.6319280853        0.5918047716
 Cl         9.8292781975        7.9391299302        1.4680439277
 Cl        12.7777210821        5.7683571202       10.6012052966
 Cl         3.8781150102        9.7700996626       15.6449796487
 Cl        18.7700718112       18.4564709739        1.3776109227
 Cl         5.8072236445        8.6669317983       13.2509010875
 Cl         6.9884675948        4.0153353320        3.8298629169
 Cl        17.2068847399       13.9679315658       15.1738512982
 Cl         7.7548099737        4.1998361999       15.1943415973
 Cl         7.9262606102        2.0450045593        7.8208877242
 Cl        12.4350782264        5.3857918655        0.6529777611
 Cl         6.3095675564       17.4953286697        9.6176427725
 Cl        11.5164993297       16.7462978246       18.4030653713
 Cl        16.5666884168       10.9672248968       17.4618121270
 Cl         9.5606786195       12.2267291655        6.5839991949
 Cl        15.3853402830       15.7464647131        3.3681973894
 Cl         3.0752673882       16.1672378804        8.0342122077
 Cl         0.9995181656        7.2961805065       16.2328460527
 Cl        17.6542796529        5.7051469635       13.4075162026
 Cl        18.8712131902        4.3636676230        9.7828271124
 Cl         5.4393115979       12.5382224069       14.1241917802
 Cl        10.5289552692        5.0246850269        3.9715602607
 Cl        15.5861800437        4.0933112931        7.9432661333
 Cl         1.2484729603       12.0489019741        8.9715420892
 Cl        17.9994055960        0.9930182218        8.9823805001
 Cl         6.5363396787        8.9714243678        6.7870092248
 Cl         4.9291037459       12.4192251985        7.7838560956
 Cl         0.1411691133        3.2352767873        1.3782099818
 Cl        11.5174637810        1.4871579129       18.5540788196
 Cl        10.0323179332       12.1810472746        2.6102071073
 Cl         5.1224707094        1.8709317114       14.0532244627
 Cl         2.8795290584       17.1847286230        3.9579819542
 Cl        15.9307156849        2.8775806868       11.7264020401
 Cl        11.0404676387        9.0991675101        4.9690505802
 Cl         2.4515736336       13.4502261131       16.4076736956
 Cl        10.3847447254        1.3433031259        4.8895815897
 Cl         6.1340202327       16.0343737219        5.9087382447
 Cl        15.5949859534       15.8981627028       12.2963587306
 Cl         5.6733089836       11.6380249617        4.0883672019
 Cl         7.5604460832        9.9077942337       16.4782450550
 Cl         4.0591172907        9.0536309371        9.8540080316
 Cl         2.2858133960        4.4487899578       13.9858058531
 Cl         3.9985675681        4.8550893878        5.9914827523
 Cl        11.8030113800        2.7546293637        8.1502877924
 Cl        13.5252258673       13.3549090277       10.1598921640
 Cl         3.0884795307        5.0579938783        2.3609382128
 Cl        16.2687328738       15.5330758132        8.7609794433
 Cl        12.2014948209        9.3583151725       11.4221192214
 Cl        12.5837218239       14.6577579637       15.4842492436
     120
 i =        2, time =        2.000, E =     -1415.6137931317
 Al        10.0392240957        1.4774967230        7.1663181327
 Al         5.3117084587       10.6215643310        6.0977713520
 Al         7.4707884701        2.1269777166       14.3861288332
 Al        17.5813392535       14.8067970363       13.0951496850
 Al         5.4413164954       18.5272192177       14.8349436192
 Al        17.3898198658       12.1243767247        0.1949839535
 Al         2.1772576733        3.9985222519        4.4736793773
 Al        11.9122922169       13.6288745580        2.5518246770
 Al        17.8242780386        1.4224850904        2.2537384766
 Al        11.1626369991        9.4450581833       13.6102102658
 Al         4.9894721548       17.9754683953        4.4751451629
 Al        16.9752961578        3.9111851528        0.0720936679
 Al         0.9494001921        2.1035967798       10.0129823778
 Al        12.6815318327        0.4614217637        8.9723449899
 Al         3.2293761962       11.9528795151       14.8243129656
 Al         5.1917504178        5.2754336100        3.7938176167
 Al        17.6573529704        7.8588660086       12.2822366930
 Al        10.2003452600        5.4007330956        1.7111854546
 Al        15.5564368226       14.3357540084       10.5950195765
 Al        11.9089557008        7.6880491011        0.3634773279
 Al        10.9081032368       15.9436940539       16.2670456568
 Al         0.9765361453        6.3512895668       14.1537204439
 Al        16.8711632912        3.1382490252        9.5908073905
 Al        12.3704371526       18.7303126883       17.3281259822
 Al        11.0472187446        7.1001916078       11.0226761115
 Al        10.8881913571       11.2919518623        5.0223565579
 Al         5.1527919540       17.1975835009        7.8461554434
 Al        16.9987532850       14.7451827265        2.2179042454
 Al         3.1670540812       10.8256553848        8.6203456599
 Al         6.1041927862       10.2069756024       14.8464426183
 Cl        17.2095930570        3.5503357277       16.8011494019
 Cl        11.3769161673       15.8295594950        2.9577739182
 Cl        13.3660288880        9.2051900153        1.3361412285
 Cl         9.1303014602        7.0186522293       10.0285194328
 Cl         5.5375032144       16.9541902194       13.2153899476
 Cl        17.3653908060       13.0266164624       11.5140522569
 Cl        16.2986255637       12.1864031211        2.2933479012
 Cl         0.6036920489       11.8574223543        0.7217631405
 Cl         7.4774069980        0.1567692165       16.0654595260
 Cl        11.7922589518        7.6034210985       17.1132060055
 Cl        12.5095400619        0.3658443330       11.3292303825
 Cl         0.4597770482       16.0584741464       12.8852151913
 Cl        15.9433973517        1.8554254787        0.8713671558
 Cl        12.8272451735       12.4723872496        4.5520675434
 Cl        17.1709032861        1.2714186012        4.3748717653
 Cl         5.7272071006        7.3004624267        2.9392494908
 Cl        11.3266868208       18.2707164960       15.1536167777
 Cl        14.6120033448       18.8687181015       16.7556363156
 Cl        16.7967405138        9.4284042626       13.6682900713
 Cl        12.5453124707       10.5976555677       14.7821709481
 Cl         3.8857508049       18.4557918194       16.5932052102
 Cl        14.5662300884       18.9465907069        7.7539433540
 Cl         8.8996224158        4.3159637300        0.3143003878
 Cl         8.4877079113        1.4883080760       12.5562285229
 Cl        10.7341308932       18.3902140925        8.0999426642
 Cl         1.2047098136        7.9890891675       12.5640150243
 Cl        10.5606947649        7.0905405458       13.5840872328
 Cl         2.9217305472        2.1494495303        8.8663871708
 Cl         2.4816525575       11.5512416782       12.7724713001
 Cl         6.2274174370        0.1906686196        3.0684613471
 Cl        16.2650813451        5.9776034013        0.8268783676
 Cl         8.7023907449       15.5229874522       16.5181561817
 Cl         0.9805034050        1.4562954245       12.2067878787
 Cl        16.9859397097       14.6288670415       18.8450031415
 Cl         0.2559077647        5.1890562262        5.2849297232
 Cl         2.3872080019        1.7819207716        4.6278432573
 Cl        18.8994541438       14.5608226834        3.5134783025
 Cl         5.0957899836        0.2190676552        6.5073709392
 Cl        16.9663576064        7.8707021225       10.1201539386
 Cl         9.3725274836       10.6718202930       13.1178551298
 Cl         3.0711476623        9.7065733632        6.4266583126
 Cl        12.9520604379       13.6289300279        0.5890675292
 Cl         9.8317935359        7.9365763024        1.4669071505
 Cl        12.7820366606        5.7684816991       10.5996513484
 Cl         3.8810002910        9.7687416279       15.6424703491
 Cl        18.7743543072       18.4560258618        1.3824759027
 Cl         5.8088047636        8.6680567945       13.2513402979
 Cl         6.9904921527        4.0193310246        3.8251877551
 Cl        17.2057889006       13.9641587304       15.1794942708
 Cl         7.7526538143        4.1987497255       15.1928042586
 Cl         7.9293540103        2.0439869234        7.8245416623
 Cl        12.4379550995        5.3763462418        0.6528539649
 Cl         6.3101931153       17.4973790403        9.6166079651
 Cl        11.5143817561       16.7426436596       18.4030524546
 Cl        16.5676134114       10.9692242502       17.4584510580
 Cl         9.5611352544       12.2223144399        6.5766334331
 Cl        15.3887187660       15.7499299052        3.3679717948
 Cl         3.0715149715       16.1680649171        8.0340427345
 Cl         0.9999428110        7.2958682600       16.2290831480
 Cl        17.6573177013        5.7055907890       13.4046239705
 Cl        18.8723852091        4.3613308418        9.7804493517
 Cl         5.4388679379       12.5417462685       14.1274163126
 Cl        10.5289004717        5.0251733285        3.9744022277
 Cl        15.5887812674        4.0942460356        7.9404763663
 Cl         1.2536291381       12.0519873624        8.9621920313
 Cl        18.0080732734        0.9975903412        8.9833191498
 Cl         6.5341365920        8.9717669889        6.7839551641
 Cl         4.9244644077       12.4173194038        7.7833512915
 Cl         0.1401867895        3.2383678852        1.3752306534
 Cl        11.5152257006        1.4783157721       18.5525302762
 Cl        10.0299359784       12.1750878684        2.6161102520
 Cl         5.1202986641        1.8688415570       14.0511116147
 Cl         2.8760718318       17.1854854549        3.9536291954
 Cl        15.9346573551        2.8756515148       11.7275409988
 Cl        11.0374015790        9.1028949415        4.9712869749
 Cl         2.4559567603       13.4450379954       16.4087571683
 Cl        10.3838917529        1.3435847274        4.8909130510
 Cl         6.1330893231       16.0434797893        5.9129831734
 Cl        15.5942268354       15.8956679736       12.2952778653
 Cl         5.6711020763       11.6338973979        4.0856261187
 Cl         7.5584932421        9.9089225137       16.4778370079
 Cl         4.0583631489        9.0575829448        9.8531093626
 Cl         2.2853213039        4.4499404403       13.9862662826
 Cl         3.9939243062        4.8537313725        5.9920104202
 Cl        11.8079821865        2.7499483923        8.1491493973
 Cl        13.5300261163       13.3517977981       10.1631406389
 Cl         3.0903915377        5.0563086250        2.3560278590
 Cl        16.2690250599       15.5327889849        8.7610621117
 Cl        12.1995365305        9.3609955356       11.4196141655
 Cl        12.5832192437       14.6539694167       15.4873992331
     120
 i =        3, time =        3.000, E =     -1415.6214453516
 Al        10.0344251927        1.4814795884        7.1722136482
 Al         5.3179727153       10.6152127361        6.0984230884
 Al         7.4656806976        2.1295596084       14.3836216674
 Al        17.5806085849       14.8091287758       13.0921135369
 Al         5.4479548867       18.5282696168       14.8451682697
 Al        17.3860221605       12.1196586555        0.1945309509
 Al         2.1787043814        4.0091376994        4.4709306387
 Al        11.9103467778       13.6378898753        2.5533786804
 Al        17.8265364695        1.4249670701        2.2622083391
 Al        11.1575311364        9.4427384873       13.6077802730
 Al         4.9869581631       17.9774437202        4.4775841176
 Al        16.9697755904        3.9108966318        0.0764030854
 Al         0.9558625120        2.1034280043       10.0104432763
 Al        12.6741614406        0.4636537246        8.9705877355
 Al         3.2202867302       11.9533864053       14.8261726230
 Al         5.1930940497        5.2791099914        3.7916670875
 Al        17.6526520342        7.8619001856       12.2830681849
 Al        10.2007376251        5.3964733886        1.7166816385
 Al        15.5626881907       14.3405310812       10.5963625342
 Al        11.9114322443        7.6847954144        0.3664082757
 Al        10.9141348324       15.9426971774       16.2644910240
 Al         0.9802241140        6.3531116993       14.1495046371
 Al        16.8712064232        3.1421416743        9.5892404481
 Al        12.3663164244       18.7322994252       17.3351401843
 Al        11.0444310420        7.0999443886       11.0261617897
 Al        10.8871912627       11.2864252804        5.0209622660
 Al         5.1543323950       17.1963129572        7.8443023776
 Al        17.0029295715       14.7461933197        2.2225144057
 Al         3.1655260492       10.8175048507        8.6203375689
 Al         6.1060689017       10.2068916543       14.8491979288
 Cl        17.2074869477        3.5526948179       16.8008397343
 Cl        11.3846292461       15.8305138211        2.9604301370
 Cl        13.3610315811        9.2097998296        1.3429448828
 Cl         9.1321081211        7.0198643885       10.0290758193
 Cl         5.5327308005       16.9623500560       13.2124791636
 Cl        17.3576302105       13.0236413641       11.5154870182
 Cl        16.2949424377       12.1889545055        2.2902463464
 Cl         0.6039631908       11.8624526521        0.7206967598
 Cl         7.4783523415        0.1585336062       16.0649793057
 Cl        11.7903401513        7.6059855840       17.1140697547
 Cl        12.5060538376        0.3681166437       11.3298933900
 Cl         0.4571391188       16.0524330006       12.8856752054
 Cl        15.9463856133        1.8569057433        0.8795750745
 Cl        12.8276532765       12.4695818149        4.5547580119
 Cl        17.1753186757        1.2712069384        4.3684581738
 Cl         5.7279605580        7.3014559237        2.9400557783
 Cl        11.3291219775       18.2749778473       15.1530911673
 Cl        14.6154932928       18.8711931975       16.7483126182
 Cl        16.7975268384        9.4292805169       13.6670636066
 Cl        12.5422849625       10.5913948864       14.7806547864
 Cl         3.8800260206       18.4574703625       16.5917200316
 Cl        14.5687281655       18.9437496326        7.7523695134
 Cl         8.9041342695        4.3190792961        0.3176221495
 Cl         8.4886819989        1.4883727151       12.5639963252
 Cl        10.7376930742       18.3894066677        8.1020260730
 Cl         1.1972744314        7.9872819167       12.5653812572
 Cl        10.5593611884        7.0905441977       13.5882048302
 Cl         2.9187877865        2.1434591193        8.8661772342
 Cl         2.4809009122       11.5454128411       12.7701025913
 Cl         6.2259750411        0.1914712780        3.0691665728
 Cl        16.2611716777        5.9827258947        0.8260601797
 Cl         8.7055339460       15.5254484523       16.5106395565
 Cl         0.9810130141        1.4539204812       12.2038065830
 Cl        16.9883654322       14.6302822244       18.8507035924
 Cl         0.2592738256        5.1944543164        5.2785798745
 Cl         2.3852351012        1.7810712173        4.6221327698
 Cl        18.9005439792       14.5619624700        3.5164817349
 Cl         5.0954747024        0.2122390600        6.5088555093
 Cl        16.9663848722        7.8661998262       10.1194173799
 Cl         9.3744672783       10.6712260133       13.1148129662
 Cl         3.0666104991        9.7075141231        6.4348476503
 Cl        12.9474698271       13.6258284634        0.5867366089
 Cl         9.8346467861        7.9335933963        1.4656377541
 Cl        12.7859524963        5.7688852553       10.5981889967
 Cl         3.8839246518        9.7677966982       15.6399381578
 Cl        18.7783801183       18.4561135573        1.3875706582
 Cl         5.8105664040        8.6695160400       13.2520215813
 Cl         6.9920993767        4.0234922730        3.8205168280
 Cl        17.2047567835       13.9605899337       15.1845912023
 Cl         7.7504633711        4.1971534662       15.1911194642
 Cl         7.9330204516        2.0428270999        7.8280684097
 Cl        12.4404501190        5.3671873676        0.6529467200
 Cl         6.3107096360       17.4993983841        9.6153284497
 Cl        11.5123609874       16.7391833699       18.4026907463
 Cl        16.5686982262       10.9715246693       17.4555316822
 Cl         9.5619220996       12.2177047949        6.5688862160
 Cl        15.3923733754       15.7532112169        3.3674362294
 Cl         3.0683231323       16.1691959386        8.0338295975
 Cl         1.0003271261        7.2953309784       16.2247924484
 Cl        17.6606475710        5.7064391082       13.4016472345
 Cl        18.8734956163        4.3585654271        9.7780779237
 Cl         5.4384170056       12.5448985987       14.1308863044
 Cl        10.5287565959        5.0257912905        3.9765779989
 Cl        15.5917361628        4.0948873656        7.9381269383
 Cl         1.2593296479       12.0547141182        8.9527743099
 Cl        18.0168749124        1.0026388515        8.9844635396
 Cl         6.5317956254        8.9723888610        6.7808076221
 Cl         4.9196378739       12.4149191228        7.7827639486
 Cl         0.1387412780        3.2413306736        1.3722286533
 Cl        11.5131948950        1.4690082066       18.5506469305
 Cl        10.0278910654       12.1692282845        2.6222692450
 Cl         5.1184532890        1.8664507893       14.0490978640
 Cl         2.8732506147       17.1864633033        3.9494297582
 Cl        15.9388607137        2.8737774083       11.7280518020
 Cl        11.0343285945        9.1070776261        4.9735160845
 Cl         2.4605505558       13.4393932344       16.4093678090
 Cl        10.3829535726        1.3438875066        4.8928628318
 Cl         6.1319320912       16.0529646452        5.9172860447
 Cl        15.5936445806       15.8929465634       12.2941998810
 Cl         5.6687909258       11.6295092468        4.0834227365
 Cl         7.5562512301        9.9101690732       16.4771023114
 Cl         4.0573389888        9.0620809479        9.8519099607
 Cl         2.2844650336        4.4516304752       13.9867250814
 Cl         3.9892267257        4.8523587565        5.9919177777
 Cl        11.8128375279        2.7447834866        8.1480206775
 Cl        13.5353697361       13.3488985926       10.1665701903
 Cl         3.0924318216        5.0543798676        2.3517277792
 Cl        16.2691746158       15.5321753587        8.7616146974
 Cl        12.1972951979        9.3633094014       11.4172361004
 Cl        12.5822689198       14.6504988307       15.4907294392